Version 4
SHEET 1 880 680
WIRE 112 96 0 96
WIRE 320 96 272 96
WIRE 112 160 48 160
WIRE 48 176 48 160
WIRE 48 176 0 176
FLAG 272 160 0
FLAG 320 96 V
SYMBOL voltage 0 80 R0
WINDOW 123 0 0 Left 0
WINDOW 39 0 0 Left 0
SYMATTR InstName V1
SYMATTR Value SINE(0 5 10 0)
SYMBOL Puente\ de\ diodos 176 112 R0
SYMATTR InstName X2
TEXT -32 216 Left 2 !.tran 50
